*---------------------------------------------------------------------* 00010000
*                                                                     * 00020000
*          COMMON AREA MAPPING MACRO                                  * 00030000
*                                                                     * 00040000
*     This macro will generate either the 'common' module CSECT or    * 00050000
*     a DSECT to map the 'common' module.  'Common' is used for       * 00060000
*     constants and work areas that are required by several modules   * 00070000
*     allowing some elimination of duplicated data and to allow       * 00080000
*     inter-module communication.                                     * 00090000
*                                                                     * 00100000
*     The trace table code is also incorporated into the 'DISASM00'.  * 00110000
*                                                                     * 00120000
*---------------------------------------------------------------------* 00130000
         MACRO                                                          00140000
&NAME    DISASMCM &TYPE=                                                00150000
         GBLA  &TRNBRG,&MAXL,&MINL                                      00160000
         GBLC  &TROPTG,&DAPRT,&COMPRT,&ASMNAME                          00170000
         AIF   (T'&NAME EQ 'O').NONAME                                  00180000
         AIF   ('&TYPE' EQ 'CSECT').CSECT                               00190000
         AIF   ('&TYPE' EQ 'DSECT').DSECT                               00200000
         MNOTE 12,'INVALID TYPE'                                        00210000
         MEXIT                                                          00220000
.CSECT   ANOP                                                           00230000
&NAME    CSECT                                                          00240000
         AGO   .NODSECT                                                 00250000
.DSECT   ANOP                                                           00260000
         AIF   ('&COMPRT' EQ 'ON').PRT010                               00270000
         PRINT OFF                                                      00280000
.PRT010  ANOP                                                           00290000
&NAME    DSECT                                                          00300000
.NODSECT ANOP                                                           00310000
*---------------------------------------------------------------------* 00320000
*                                                                     * 00330000
*          Double word for CVB/CVD                                    * 00340000
*                                                                     * 00350000
*---------------------------------------------------------------------* 00360000
COMMDWRD DC    D'0'                                                     00370000
*---------------------------------------------------------------------* 00380000
*                                                                     * 00390000
*          ADDRESS CONSTANTS                                          * 00400000
*                                                                     * 00410000
*---------------------------------------------------------------------* 00420000
         DC    CL8'DISASM00'                                            00430000
ACOMM    DC    A(DISASM00)         COMMON MODULE                        00440000
         DC    CL8'DISASM01'                                            00450000
A01      DC    V(DISASM01)         MAINLINE MODULE                      00460000
         DC    CL8'DISASM02'                                            00470000
A02      DC    V(DISASM02)         PARAMETER READER                     00480000
         DC    CL8'DISASM03'                                            00490000
A03      DC    V(DISASM03)         MODULE READER                        00500000
         DC    CL8'DISASM04'                                            00510000
A04      DC    V(DISASM04)         CESD record processor                00520000
         DC    CL8'DISASM05'                                            00530000
A05      DC    V(DISASM05)         RLD record processor                 00540000
         DC    CL8'DISASM55'                                    GP99148 00550000
A55      DC    V(DISASM55)         SYM RECORD PROCESSOR         GP99148 00560000
         DC    CL8'DISASM06'                                            00570000
A06      DC    V(DISASM06)         MODULE TEXT PRINTER; VER/REP GP10082 00580000
         DC    CL8'DISASM07'                                            00590000
A07      DC    V(DISASM07)         DSECT INTERPRETER                    00600000
         DC    CL8'DISASM08'                                            00610000
A08      DC    V(DISASM08)         ASSIGN LABELS                        00620000
         DC    CL8'DISASM09'                                            00630000
A09      DC    V(DISASM09)         SOURCE GENERATOR                     00640000
         DC    CL8'DISASM19'                                    GP99148 00650000
A19      DC    V(DISASM19)         X-REF GENERATOR              GP99148 00660000
         DC    CL8'DISASMDB'                                            00670000
ADB      DC    V(DISASMDB)         DEBUG                                00680000
         DC    CL8'DISASMOP'                                            00690000
AOP      DC    V(DISASMOP)         OPCODE TABLE                         00700000
         DC    CL8'DISASMPR'                                            00710000
APR      DC    V(DISASMPR)         PRINT MODULE ADDRESS                 00720000
APU      DC    V(DISASMPU)         PUNCH MODULE ADDRESS         GP10047 00730000
*---------------------------------------------------------------------* 00740000
*                                                                     * 00750000
*          TRACE CONTROL                                              * 00760000
*                                                                     * 00770000
*---------------------------------------------------------------------* 00780000
         DS    0A                                                       00790000
         DC    CL4'1ST'            FIRST TRACE ENTRY                    00800000
TR1ST    DC    A(0)                                                     00810000
         DC    CL4'LAST'           LAST TRACE ENTRY                     00820000
TRLAST   DC    A(0)                                                     00830000
         DC    CL4'CURR'           CURRENT TRACE ENTRY                  00840000
TRCURR   DC    A(0)                                                     00850000
TRADDR   DC    A(0)                TRACE TABLE STORAGE ADDRESS          00860000
TRR14    DC    A(0)                REGISTER 14 SAVE AREA                00870000
TRDATA1  DC    CL8' '              TRACE DATA ITEM 1                    00880000
TRDATA2  DC    CL8' '              TRACE DATA ITEM 2                    00890000
TRSIZE   DC    A(&TRNBRG*32)       TRACE TABLE SIZE                     00900000
*---------------------------------------------------------------------* 00910000
*   GLOBAL DATA - LIFE OF PROGRAM - OBTAINED IN SUBPOOL 88            * 00920000
*---------------------------------------------------------------------* 00930000
COMMIO   DC    A(0)                I/O BUFFER ADDRESS                   00940000
$IOSIZE  EQU   32760               I/O BUFFER SIZE                      00950000
*---------------------------------------------------------------------* 00960000
*   GLOBAL DATA - FOR CSECT DURATION ONLY - FROM SUBPOOL 69           * 00970000
*---------------------------------------------------------------------* 00980000
COMMCLR  DS    0A                      START OF AREA TO CLEAR   GP10085 00990000
COMMESD  DC    A(0)                EXTERNAL SYMBOL TABLE ANCHOR         01000000
COMMRLD  DC    A(0)                RLD TABLE ANCHOR                     01010000
COMMUSNG DC    A(0)                USING TABLE ANCHOR                   01020000
COMMDSCT DC    A(0)                DSECT TABLE ANCHOR                   01030000
COMMBASE DC    A(0)                BASE TABLE ANCHOR                    01040000
COMMDATA DC    A(0)                DATA TABLE ANCHOR                    01050000
COMMDISP DC    A(0)                INSTRUCTION DISPLACEMENT TABLE       01060000
COMMREF  DC    A(0)                REFERENCE TABLE ANCHOR               01070000
COMMLABL DC    A(0)                LABEL TABLE ANCHOR                   01080000
COMMCSAD DC    A(0)                CSECT ADDRESS                        01090000
COMMCSEP DC    A(0)                LINK EDIT ASSIGNED ENTRY POINT       01100000
COMMCSEA DC    A(0)                CSECT ENDING ADDRESS                 01110000
COMMCSEO DC    A(0)                CSECT ORIGINAL END PRE-ROUND GP10071 01120000
COMMCSLN DC    A(0)                CSECT LENGTH                         01130000
COMMTXT  DC    A(0)                TEXT'S STORAGE ADDRESS               01140000
COMMSYMP DC    A(0)                SYMBOL TABLE CHAIN           GP99148 01150000
COMMVERS DC    A(0)                CHAIN OF VERIFY REQUESTS     GP10082 01160000
COMMREPS DC    A(0)                CHAIN OF REPLACE REQUESTS    GP10082 01170000
COMMESID DS    XL2                 CSECT's ESDID                        01180000
COMMCLRL EQU   *-COMMCLR               SIZE TO CLEAR            GP10085 01190000
COMMBLK  DS    0A                      START OF AREA TO BLANK   GP10085 01200000
COMMMOD  DC    CL8' '              MODULE NAME                          01210000
COMMCSNM DC    CL8' '              CSECT NAME                           01220000
COMMBLKL EQU   *-COMMCLR               SIZE TO CLEAR            GP10085 01230000
*---------------------------------------------------------------------* 01240000
*                                                                     * 01250000
*      Sub-heading length is actually a flag byte and a length byte   * 01260000
*                                                                     * 01270000
*        If first byte is X'00', heading is to be centered            * 01280000
*        If first byte is X'FF', heading is not to be centered        * 01290000
*                                                                     * 01300000
*      Second byte is the length for centered and non-centered        * 01310000
*                                                                     * 01320000
*---------------------------------------------------------------------* 01330000
COMMSUBL DC    H'0'                SUB HEADING LENGTH                   01340000
COMMPFXL DC    H'0'                LABEL PREFIX LENGTH                  01350000
COMMH4   DC    H'4'                CONSTANT                             01360000
COMMH8   DC    H'8'                CONSTANT                             01370000
COMMH32  DC    H'32'               CONSTANT                             01380000
COMMMAXL DC    PL3'&MAXL'          MAXIMUM LINES PER PAGE               01390000
COMMFILL DC    X'00'         GETMAIN: STORAGE FILL BYTE         GP99161 01400000
COMMPOOL DC    AL1(69)       GETMAIN: SUBPOOL                   GP10085 01410000
COMMFLAG DC    X'00'               GLOBAL CONTROL FLAGS                 01420000
$ABORT   EQU   X'80'               .. SERIOUS ERROR, ABORT              01430000
$ERROR   EQU   X'40'               .. ERROR HAS OCCURRED                01440000
$CSECT   EQU   X'20'               .. CSECT LOCATED                     01450000
$ABEND   EQU   X'10'               .. ABEND AT EXIT                     01460000
$ASMIN   EQU   X'08'               .. ASSEMBLER INPUT PRESENT           01470000
$SEQLABL EQU   X'04'               .. SEQUENTIALLY NUMBERED LABELS      01480000
COMMDD   DC    X'00'               DD STATEMENT FLAGS                   01490000
$PRTDD   EQU   X'80'               .. DISPRINT DD PRESENT               01500000
$INDD    EQU   X'40'               .. DISIN DD PRESENT                  01510000
$MODDD   EQU   X'20'               .. DISMOD DD PRESENT                 01520000
$PUNCHDD EQU   X'10'               .. DISPUNCH DD PRESENT               01530000
$DEBUGDD EQU   X'08'               .. DISDEBUG DD PRESENT               01540000
$ADADD   EQU   X'04'               .. DISADATA DD PRESENT       GP99166 01550000
$LISTDD  EQU   X'02'               .. DISLIST DD PRESENT        GP99166 01560000
PRINTFG1 DC    AL1(0)        PRINT OPTIONS                      GP99132 01570000
$PFDIR   EQU   X'80'           PRINT DIRECTORY ENTRY DATA       GP99132 01580000
$PFESD   EQU   X'40'           PRINT CESD LISTING               GP99132 01590000
$PFRLD   EQU   X'20'           PRINT RLD LISTING                GP99132 01600000
$PFSYM   EQU   X'10'           PRINT SYM LISTING                GP99132 01610000
$PFDAT   EQU   X'08'           PRINT SYSADATA INFO (LATER)      GP99132 01620000
$PFLBL   EQU   X'02'           PRINT LABELS                     GP99132 01630000
$PFTRC   EQU   X'01'           PRINT THE TRACE TABLE ON ABNORMAL END    01640000
PRINTFG2 DC    AL1(0)        PRINT OPTIONS                      GP99132 01650000
$PFHEX   EQU   X'80'           PRINT THE CSECT HEX DUMP         GP99132 01660000
$PFASM   EQU   X'40'           PRINT THE ASSEMBLY LISTING       GP99132 01670000
$PFXRF   EQU   X'20'           PRINT A LABEL CROSS-REFERENCE    GP99132 01680000
$PFPUN   EQU   X'10'           PUNCH OUTPUT (?)                 GP99132 01690000
$PFBUG   EQU   X'01'           PRINT ADDITIONAL DEBUG INFO      GP99149 01700000
PRINTFG3 DC    X'00'         PROCESSING FLAG                    GP99166 01710000
$PFMAC   EQU   X'80'           INCLUDE MACRO EXPANDED CODE (SYSADATA)   01720000
$PFCOPY  EQU   X'40'           INCLUDE COPY CODE           (SYSADATA)   01730000
$MG0504  EQU   X'01'           MSG ISSUED - SKIP DUPLICATES     GP04234 01740000
COMMOPFG DC    X'00'         PROCESSING OPTIONS                 GP08063 01750000
$OFIXSWP EQU   X'80'           TREAT DDD(X,0) AS DDD(0,X)       GP08063 01760000
$OFNOBLK EQU   X'40'           NAME BLANK CSECTS                GP10074 01770000
$OFROUND EQU   X'10'           ROUND CSECT TO DOUBLE-WORD       GP10066 01780000
$OFZERO  EQU   X'08'           USE 0 FOR DS/ORG FILLERS         GP10066 01790000
$OFABSR  EQU   X'04'           GENERATE ABSOLUTE REGISTERS      GP10029 01800000
$OFPLSR  EQU   X'02'           GENERATE PL/S STYLE @nn REGS     GP10055 01810000
$OFBCOP  EQU   X'01'           DO NOT GEN MNEMONIC BRANCH OPS   GP10029 01820000
COMMPFX  DC    CL4' '              LABEL PREFIX                         01830000
COMMSUBH DC    CL133' '            SUB-HEADING                          01840000
COMMDBSH DC    CL35' '             DEBUG SUB-HEADING                    01850000
COMM0F0F DC    8X'0F'                                                   01860000
COMM1F1F DC    8X'1F'                                                   01870000
COMMBLKS DC    80C' '                                                   01880000
COMMHXCH DC    C'0123456789ABCDEF'                                      01890000
COMMHXTR EQU   COMMHXCH-C'0'   SIMPLE HEX TO EBCDIC TRANSLATE   GP99132 01900000
COMMCHHX DC    X'000A0B0C0D0E0F000000000000000000'                      01910000
         DC    X'00010203040506070809000000000000'                      01920000
COMMNBR  DS    0CL2                                                     01930000
         DC    C'0 '                                                    01940000
         DC    C'1 '                                                    01950000
         DC    C'2 '                                                    01960000
         DC    C'3 '                                                    01970000
         DC    C'4 '                                                    01980000
         DC    C'5 '                                                    01990000
         DC    C'6 '                                                    02000000
         DC    C'7 '                                                    02010000
         DC    C'8 '                                                    02020000
         DC    C'9 '                                                    02030000
         DC    C'10'                                                    02040000
         DC    C'11'                                                    02050000
         DC    C'12'                                                    02060000
         DC    C'13'                                                    02070000
         DC    C'14'                                                    02080000
         DC    C'15'                                                    02090000
         DC    C'16'                                                    02100000
*---------------------------------------------------------------------* 02110000
*                                                                     * 02120000
*          Printable characters                                       * 02130000
*                                                                     * 02140000
*---------------------------------------------------------------------* 02150000
COMMPRT  DC    256X'FF'                                                 02160000
         ORG   COMMPRT+X'40'                                            02170000
         DC    X'00'                                                    02180000
         ORG   COMMPRT+X'4A'                                            02190000
         DC    6X'00'                                                   02200000
         ORG   COMMPRT+X'5A'                                            02210000
         DC    6X'00'                                                   02220000
         ORG   COMMPRT+X'60'                                            02230000
         DC    2X'00'                                                   02240000
         ORG   COMMPRT+X'6A'                                            02250000
         DC    6X'00'                                                   02260000
         ORG   COMMPRT+X'79'                                            02270000
         DC    4X'00'                                                   02280000
         ORG   COMMPRT+X'7E'                                            02290000
         DC    2X'00'                                                   02300000
         ORG   COMMPRT+X'C0'                                            02310000
         DC    10X'00'                                                  02320000
         ORG   COMMPRT+X'D0'                                            02330000
         DC    10X'00'                                                  02340000
         ORG   COMMPRT+X'E2'                                            02350000
         DC    8X'00'                                                   02360000
         ORG   COMMPRT+X'F0'                                            02370000
         DC    10X'00'                                                  02380000
         ORG   COMMPRT+256                                              02390000
*---------------------------------------------------------------------* 02400000
*                                                                     * 02410000
*          Non-printable characters                                   * 02420000
*                                                                     * 02430000
*---------------------------------------------------------------------* 02440000
COMMNPRT DC    256X'00'                                                 02450000
         ORG   COMMNPRT+X'4A'                                           02460000
         DC    X'FF'                                                    02470000
         ORG   COMMNPRT+X'4C'                                           02480000
         DC    4X'FF'                                                   02490000
         ORG   COMMNPRT+X'5A'                                           02500000
         DC    6X'FF'                                                   02510000
         ORG   COMMNPRT+X'60'                                           02520000
         DC    2X'FF'                                                   02530000
         ORG   COMMNPRT+X'6A'                                           02540000
         DC    X'FF'                                                    02550000
         ORG   COMMNPRT+X'6C'                                           02560000
         DC    4X'FF'                                                   02570000
         ORG   COMMNPRT+X'79'                                           02580000
         DC    4X'FF'                                                   02590000
         ORG   COMMNPRT+X'7E'                                           02600000
         DC    2X'FF'                                                   02610000
         ORG   COMMNPRT+X'C0'                                           02620000
         DC    10X'FF'                                                  02630000
         ORG   COMMNPRT+X'D0'                                           02640000
         DC    10X'FF'                                                  02650000
         ORG   COMMNPRT+X'E2'                                           02660000
         DC    8X'FF'                                                   02670000
         ORG   COMMNPRT+X'F0'                                           02680000
         DC    10X'FF'                                                  02690000
         ORG   COMMNPRT+256                                             02700000
         EJECT ,                                                GP99137 02710000
*********************************************************************** 02720000
*                                                                     * 02730000
*  GETOPENT   PERFORM INSTRUCTION TABLE LOOK-UP FOR OP-CODE IN R1     * 02740000
*             IF MASK PRESENT, VERIFY MASK BITS ARE ZERO              * 02750000
*  RETURNS:R14+0   NO MATCH                                           * 02760000
*             +4   R15 -> OP-CODE TABLE ENTRY                         * 02770000
*                  R0  =  INSTRUCTION LENGTH                          * 02780000
*                                                                     * 02790000
*********************************************************************** 02800000
         PUSH  USING                                            GP99137 02810000
         DROP  ,                                                GP99137 02820000
         USING &NAME,R11           DEFINE BASE                  GP99137 02830000
GETOPENT STM   R0,R15,TRCESAVE     SAVE ALL REGISTERS           GP99137 02840000
         SR    R15,R15                                          GP99137 02850000
         IC    R15,0(,R1)    GET MAJOR OP-CODE                  GP99137 02860000
         LA    R14,X'C0'     LENGTH DETERMINATION BITS          GP99137 02870000
         NR    R14,R15       MASK OP-CODE                       GP99137 02880000
         SRL   R14,6         RETAIN TOP TWO BITS ONLY           GP99137 02890000
         SR    R0,R0                                            GP99137 02900000
         IC    R0,GETOPLEN(R14)  EQUIVALENT LENGTH              GP05204 02910000
         SLL   R15,2         TIMES ADDRESS ENTRY LENGTH         GP99137 02920000
         AL    R15,AOP       POINT TO INSTRUCTION               GP99137 02930000
         USING OPDSECT,R15                                      GP99137 02940000
         ICM   R15,15,0(R15) IS IT: 0 ILLEGAL; - TABLE; + VALID GP99137 02950000
         BZ    GETOPNOT      ILLEGAL                            GP99137 02960000
         BP    GETOPTMK      GOOD - NOW CHECK MASK BITS         GP10018 02970000
         SR    R14,R14       CLEAR FOR IC                       GP99137 02980000
         SR    R2,R2         CLEAR FOR IC                       GP99137 02990000
         IC    R14,1(,R1)    GET SUBCODE                        GP99137 03000000
         IC    R2,OPFLAG1    GET MASK                           GP99137 03010000
         NR    R14,R2        MASK UNNECESSARY BITS              GP99137 03020000
         IC    R2,OPFLAG2    GET RIGHT SHIFT VALUE              GP99137 03030000
         SRL   R14,0(R2)     SHIFT UNWANTED BITS                GP99137 03040000
         CLM   R14,1,OPFLAG3 IS IT IN LEGAL RANGE?              GP99137 03050000
         BH    GETOPNOT      NO; RETURN ILLEGAL                 GP99137 03060000
         LA    R14,1(,R14)   ALLOW FOR TABLE DATA               GP99137 03070000
         SLL   R14,2         OFFSET TO INSTRUCTION ADDRESS      GP99137 03080000
         ALR   R15,R14       GET ENTRY ADDRESS POINTER          GP99137 03090000
         ICM   R15,15,0(R15) IS IT LEGAL?                       GP99137 03100000
         BNH   GETOPNOT      NO; FAIL IT                        GP99137 03110000
GETOPTMK TM    OPFLAGS,$OPMASK  MASK PRESENT?                   GP10018 03120000
         BZ    GETOPEXT      NO; EXIT WITH VALID INSTRUCTION    GP10018 03130000
         LR    R4,R0         SAVE LENGTH                        GP10018 03140000
         BCTR  R4,0          EXECUTE LENGTH                     GP10018 03150000
         XC    GETOPWRK,GETOPWRK    CLEAR WORK AREA             GP10018 03160000
         EX    R4,EXGETOPC   MOVE COMPLETE INSTRUCTION          GP10018 03170000
         NC    GETOPWRK,OPMASK    MASK                          GP10018 03180000
         BNZ   GETOPNOT      INVALID INSTRUCTION                GP10018 03190000
GETOPEXT LM    R1,R14,TRCESAVE+4  RESTORE REGS EXC. R15, R0     GP99137 03200000
         B     4(,R14)       RETURN                             GP99137 03210000
GETOPNOT LM    R1,R15,TRCESAVE+4  RESTORE ALL BUT R0            GP99137 03220000
         BR    R14                                              GP99137 03230000
EXGETOPC MVC   GETOPWRK(0),0(R1)  MOVE COMPLETE INSTRUCTION     GP10018 03240000
GETOPLEN DC    AL1(2,4,4,6) INSTRUCTION LENGTH BY TOP BITS      GP05204 03250000
GETOPWRK DC    XL6'0'        WORK AREA FOR MASKING              GP10018 03260000
         POP   USING                                            GP99137 03270000
         EJECT                                                          03280000
*---------------------------------------------------------------------* 03290000
*                                                                     * 03300000
*          ADD TRACE ENTRY                                            * 03310000
*                                                                     * 03320000
*  During program initialization, DISASM01 acquires storage for the   * 03330000
*  trace table and sets COMM1ST, COMMLAST, and COMMCURR.  DISASM01    * 03340000
*  also sets R11 to the address of DISASM00 and all other modules     * 03350000
*  depend on this remaining unchanged.  Any module except this        * 03360000
*  module may call the trace routine.  Macro ITRACE generates the     * 03370000
*  calling sequence.  R14 is the only register altered by the trace   * 03380000
*  macro.                                                             * 03390000
*                                                                     * 03400000
*  The trace table is a "wrap-around" table.  COMM1ST is the first    * 03410000
*  entry's address, COMMLAST is the last entry's address, and         * 03420000
*  COMMCURR is the address of the last entry added to the table.      * 03430000
*  When a trace entry is added to the table, the calling module's     * 03440000
*  name, an 8-byte ID, and up to 2 8-byte fields are captured.        * 03450000
*                                                                     * 03460000
*                                                                     * 03470000
*                                                                     * 03480000
*      This code depends on:                                          * 03490000
*           R11  'DISASM00' address                                   * 03500000
*           R12  current module's base address                        * 03510000
*                and the module's name must be at 10 bytes (0A hex)   * 03520000
*                into the module                                      * 03530000
*           R14  trace id's address and R14 + 8 will be the return    * 03540000
*                address                                              * 03550000
*                                                                     * 03560000
*---------------------------------------------------------------------* 03570000
         PUSH  USING                                            GP99137 03580000
TRACE000 DS    0H                                                       03590000
         USING &NAME,R11           DEFINE BASE                          03600000
         USING TRENTRY,R1          DEFINE BASE                          03610000
         STM   R0,R15,TRCESAVE     SAVE ALL REGISTERS                   03620000
         ICM   R1,15,TRCURR        CURRENT TRACE ENTRY                  03630000
         BZ    TRACE020            NO TRACE TABLE                       03640000
*NUTS*   OC    0(TRENTRYL,R1),0(R1)    EMPTY ENTRY?             GP99136 03650000
*NUTS*   BZ    TRACE010            YES.. USE THIS ENTRY         GP99136 03660000
         LA    R1,TRENTRYL(,R1)    NEXT TRACE ENTRY                     03670000
         C     R1,TRLAST           BEYOND END OF TABLE?                 03680000
         BNH   TRACE010            NO                                   03690000
         L     R1,TR1ST            'WRAP' TRACE TABLE                   03700000